<?xml version="1.0" encoding="UTF-8"?>

<!-- generated on 03/20/22 20:33:08 by Eclipse SUMO polyconvert Version 1.8.0
<configuration xmlns:xsi="http://www.w3.org/2001/XMLSchema-instance" xsi:noNamespaceSchemaLocation="http://sumo.dlr.de/xsd/polyconvertConfiguration.xsd">

    <input>
        <net-file value="test.net.xml"/>
        <osm-files value="map.osm"/>
        <type-file value="typemap.xml"/>
    </input>

    <output>
        <output-file value="map.poly.xml"/>
    </output>

    <processing>
        <poi-layer-offset value="5"/>
    </processing>

    <report>
        <xml-validation value="never"/>
    </report>

</configuration>
-->

<additional xmlns:xsi="http://www.w3.org/2001/XMLSchema-instance" xsi:noNamespaceSchemaLocation="http://sumo.dlr.de/xsd/additional_file.xsd">
    <location netOffset="-410710.94,-3695933.80" convBoundary="-0.00,-0.00,15932.79,4183.01" origBoundary="-111.960323,33.399196,-111.788974,33.437107" projParameter="+proj=utm +zone=12 +ellps=WGS84 +datum=WGS84 +units=m +no_defs"/>

    <poly id="1004533154" type="leisure" color="207,245,201" fill="1" layer="-2.00" shape="4257.157319,986.153423 4259.422662,984.669878 4260.132196,984.985199 4260.015710,987.603027 4258.710718,988.313049 4257.157319,986.153423"/>
    <poly id="1004533155" type="leisure" color="207,245,201" fill="1" layer="-2.00" shape="4251.872335,992.176388 4251.881716,990.069556 4255.817569,987.140956 4257.200472,988.947259 4257.141227,989.613069 4258.471344,989.645732 4260.065195,991.117537 4261.761320,990.470606 4261.845136,987.309746 4263.835900,986.327581 4266.632024,988.099291 4266.507667,994.054722 4257.605679,996.960434 4255.486460,993.907640 4254.194750,992.954323 4251.872335,992.176388"/>
    <poly id="1005705934" type="residential" color="235,235,227" fill="1" layer="-3.00" shape="3823.266001,1933.037010 3824.652036,2059.374639 3767.633111,2060.366539 3766.436042,1995.444694 3765.307047,1934.015032 3823.266001,1933.037010"/>
    <poly id="1019268487" type="building" color="255,230,230" fill="1" layer="-1.00" shape="4600.005090,2921.356581 4600.193717,2932.276782 4578.254545,2932.646383 4578.065894,2921.726182 4600.005090,2921.356581"/>
    <poly id="1019268490" type="building" color="255,230,230" fill="1" layer="-1.00" shape="4232.226364,2901.166698 4167.142797,2901.185046 4167.136446,2879.341369 4232.220160,2879.323024 4232.226364,2901.166698"/>
    <poly id="1019268491" type="building" color="255,230,230" fill="1" layer="-1.00" shape="4281.854156,2859.559820 4265.201875,2859.551002 4265.228830,2828.781051 4281.871867,2828.789952 4281.854156,2859.559820"/>
    <poly id="1019268492" type="building" color="255,230,230" fill="1" layer="-1.00" shape="4479.653884,3085.363388 4452.228793,3085.648351 4452.103668,3073.507888 4479.528794,3073.222926 4479.653884,3085.363388"/>
    <poly id="1019268493" type="building" color="255,230,230" fill="1" layer="-1.00" shape="4485.547931,3108.619046 4455.056535,3109.108310 4454.854606,3096.691317 4485.346042,3096.202053 4485.547931,3108.619046"/>
    <poly id="1019268494" type="building" color="255,230,230" fill="1" layer="-1.00" shape="4480.130144,3129.057736 4452.477040,3129.832582 4452.126360,3117.416894 4479.779500,3116.642048 4480.130144,3129.057736"/>
    <poly id="1019300917" type="amenity" color="237,199,199" fill="1" layer="-1.00" shape="4812.399140,2549.796954 4804.997245,2549.717473 4805.167474,2534.081677 4812.560084,2534.161239 4812.399140,2549.796954"/>
    <poly id="1019300917#1" type="building" color="255,230,230" fill="1" layer="-1.00" shape="4812.399140,2549.796954 4804.997245,2549.717473 4805.167474,2534.081677 4812.560084,2534.161239 4812.399140,2549.796954"/>
    <poly id="1019300918" type="building" color="255,230,230" fill="1" layer="-1.00" shape="4831.238133,2560.587500 4831.331797,2546.826273 4835.475001,2543.208611 4848.018784,2543.298655 4847.901069,2560.697008 4831.238133,2560.587500"/>
    <poly id="1019300918#1" type="shop" color="237,199,255" fill="1" layer="-1.00" shape="4831.238133,2560.587500 4831.331797,2546.826273 4835.475001,2543.208611 4848.018784,2543.298655 4847.901069,2560.697008 4831.238133,2560.587500"/>
    <poly id="1019300969" type="building" color="255,230,230" fill="1" layer="-1.00" shape="4789.355736,2239.795913 4784.320109,2232.810021 4784.058478,2217.765677 4802.364098,2217.450508 4802.571558,2226.297045 4789.355736,2239.795913"/>
    <poly id="1019300970" type="building" color="255,230,230" fill="1" layer="-1.00" shape="4806.135430,2193.600202 4811.620835,2193.530109 4811.887941,2215.593208 4806.402549,2215.663300 4806.135430,2193.600202"/>
    <poly id="1019300971" type="building" color="255,230,230" fill="1" layer="-1.00" shape="4878.843215,2208.987719 4878.935649,2203.598069 4889.769884,2203.791806 4889.677347,2209.170368 4878.843215,2208.987719"/>
    <poly id="1019302171" type="building" color="255,230,230" fill="1" layer="-1.00" shape="4949.336306,2209.281938 4939.200368,2209.192926 4939.246444,2203.814770 4949.382387,2203.903783 4949.336306,2209.281938"/>
    <poly id="1019302172" type="building" color="255,230,230" fill="1" layer="-1.00" shape="4925.421185,2203.968625 4936.392367,2203.872928 4936.437818,2209.083963 4925.466642,2209.179661 4925.421185,2203.968625"/>
    <poly id="1019302173" type="building" color="255,230,230" fill="1" layer="-1.00" shape="4911.844737,2203.865302 4922.722943,2203.770400 4922.770336,2209.203181 4911.892136,2209.298083 4911.844737,2203.865302"/>
    <poly id="1019302174" type="building" color="255,230,230" fill="1" layer="-1.00" shape="4906.210234,2209.225688 4895.238187,2209.221634 4895.246178,2203.744016 4906.218134,2203.736983 4906.210234,2209.225688"/>
    <poly id="1019302175" type="building" color="255,230,230" fill="1" layer="-1.00" shape="4860.484511,2208.549211 4849.513913,2208.711519 4849.431225,2203.500808 4860.401828,2203.338500 4860.484511,2208.549211"/>
    <poly id="1019302176" type="building" color="255,230,230" fill="1" layer="-1.00" shape="4846.240380,2208.651396 4835.322567,2208.469526 4835.420595,2202.658476 4846.338318,2202.829259 4846.240380,2208.651396"/>
    <poly id="1019302177" type="building" color="255,230,230" fill="1" layer="-1.00" shape="4819.713067,2187.449647 4824.687493,2187.428378 4824.746166,2198.405139 4819.771746,2198.426409 4819.713067,2187.449647"/>
    <poly id="1019302178" type="water" color="181,209,209" fill="0" layer="-4.00" shape="5137.468386,2262.640321 4955.603201,2240.185409 4813.342142,2222.399722"/>
    <poly id="1019302179" type="water" color="181,209,209" fill="0" layer="-4.00" shape="4813.342142,2222.399722 4793.619809,2222.328074"/>
    <poly id="1019302180" type="building" color="255,230,230" fill="1" layer="-1.00" shape="4491.246536,2266.699377 4504.955868,2266.058036 4505.208529,2271.544464 4491.499204,2272.185805 4491.246536,2266.699377"/>
    <poly id="1019302181" type="building" color="255,230,230" fill="1" layer="-1.00" shape="4528.918979,2299.112485 4523.293002,2299.050914 4523.527720,2278.092220 4529.144411,2278.153874 4528.918979,2299.112485"/>
    <poly id="1019302182" type="building" color="255,230,230" fill="1" layer="-1.00" shape="4536.397859,2278.245539 4541.604097,2278.155562 4541.922887,2297.557060 4536.716659,2297.647037 4536.397859,2278.245539"/>
    <poly id="1019302183" type="building" color="255,230,230" fill="1" layer="-1.00" shape="4621.243976,2277.125352 4595.061112,2277.243733 4595.020770,2266.266803 4621.185069,2266.148585 4621.243976,2277.125352"/>
    <poly id="1019302184" type="building" color="255,230,230" fill="1" layer="-1.00" shape="4621.289155,2284.409880 4621.282389,2290.009462 4595.200473,2289.971726 4595.207224,2284.372144 4621.289155,2284.409880"/>
    <poly id="1019302185" type="building" color="255,230,230" fill="1" layer="-1.00" shape="4623.337243,2319.741017 4628.823160,2319.737343 4628.814347,2339.973321 4623.328441,2339.976995 4623.337243,2319.741017"/>
    <poly id="1019302186" type="building" color="255,230,230" fill="1" layer="-1.00" shape="4619.292349,2353.706215 4619.174017,2359.306775 4598.156203,2358.858790 4598.274621,2353.269317 4619.292349,2353.706215"/>
    <poly id="1019302189" type="building" color="255,230,230" fill="1" layer="-1.00" shape="4543.593855,2388.498656 4554.554373,2388.269554 4555.289598,2422.303789 4544.329118,2422.532890 4543.593855,2388.498656"/>
    <poly id="1019302190" type="building" color="255,230,230" fill="1" layer="-1.00" shape="4531.319051,2400.027044 4536.804341,2399.956794 4537.152737,2431.222377 4531.667465,2431.292628 4531.319051,2400.027044"/>
    <poly id="1019302191" type="building" color="255,230,230" fill="1" layer="-1.00" shape="4550.171926,2463.263975 4544.686673,2463.334219 4544.281056,2431.902814 4549.766328,2431.832570 4550.171926,2463.263975"/>
    <poly id="1019302192" type="building" color="255,230,230" fill="1" layer="-1.00" shape="4531.952661,2443.675614 4537.437537,2443.561013 4537.797684,2459.192176 4532.312816,2459.306776 4531.952661,2443.675614"/>
    <poly id="1019302193" type="building" color="255,230,230" fill="1" layer="-1.00" shape="4502.495208,2463.704050 4533.686329,2463.253215 4533.772592,2468.851985 4502.581488,2469.302820 4502.495208,2463.704050"/>
    <poly id="1019302194" type="building" color="255,230,230" fill="1" layer="-1.00" shape="4470.144249,2464.431275 4496.080800,2463.848997 4496.202816,2469.281131 4470.266279,2469.863409 4470.144249,2464.431275"/>
    <poly id="1019302195" type="building" color="255,230,230" fill="1" layer="-1.00" shape="4369.813674,2435.362639 4379.003936,2430.491849 4381.499629,2435.160234 4372.318667,2440.030940 4369.813674,2435.362639"/>
    <poly id="1019302196" type="building" color="255,230,230" fill="1" layer="-1.00" shape="4365.844792,2365.641787 4361.333236,2368.597596 4349.874532,2351.278711 4354.386093,2348.322897 4365.844792,2365.641787"/>
    <poly id="1019302197" type="building" color="255,230,230" fill="1" layer="-1.00" shape="4349.819994,2342.951972 4345.901088,2346.689843 4331.769140,2332.022357 4335.697344,2328.284399 4349.819994,2342.951972"/>
    <poly id="1019302198" type="building" color="255,230,230" fill="1" layer="-1.00" shape="4317.070032,2314.188656 4329.387287,2323.383418 4326.023362,2327.848241 4313.706109,2318.653484 4317.070032,2314.188656"/>
    <poly id="1019302199" type="building" color="255,230,230" fill="1" layer="-1.00" shape="4297.103274,2380.449641 4297.242047,2385.659865 4284.321516,2386.106073 4284.089762,2380.896667 4297.103274,2380.449641"/>
    <poly id="1019302208" type="building" color="255,230,230" fill="1" layer="-1.00" shape="4882.913706,2330.190081 4883.195457,2341.164897 4877.246038,2341.327706 4876.964279,2330.352891 4882.913706,2330.190081"/>
    <poly id="1019302209" type="building" color="255,230,230" fill="1" layer="-1.00" shape="4883.051696,2319.366836 4877.055388,2319.485702 4876.827963,2308.344091 4882.824278,2308.225225 4883.051696,2319.366836"/>
    <poly id="1019302210" type="building" color="255,230,230" fill="1" layer="-1.00" shape="4895.069428,2303.893770 4895.397653,2314.868180 4890.145530,2315.024896 4889.817299,2304.050487 4895.069428,2303.893770"/>
    <poly id="1019302211" type="building" color="255,230,230" fill="1" layer="-1.00" shape="4890.055357,2328.131883 4895.400061,2327.930006 4895.830074,2338.848087 4890.485376,2339.049964 4890.055357,2328.131883"/>
    <poly id="1019302212" type="building" color="255,230,230" fill="1" layer="-1.00" shape="4895.824100,2346.687466 4896.012379,2357.607656 4890.620237,2357.699066 4890.431952,2346.778875 4895.824100,2346.687466"/>
    <poly id="1019302213" type="building" color="255,230,230" fill="1" layer="-1.00" shape="4883.388597,2351.574990 4883.708022,2362.604918 4877.572859,2362.791525 4877.253427,2351.761597 4883.388597,2351.574990"/>
    <poly id="1019302214" type="building" color="255,230,230" fill="1" layer="-1.00" shape="4883.610692,2375.955908 4884.126815,2387.150442 4878.131904,2387.424530 4877.615774,2376.229997 4883.610692,2375.955908"/>
    <poly id="1019302215" type="building" color="255,230,230" fill="1" layer="-1.00" shape="4891.065685,2389.562541 4896.271087,2389.384055 4896.625269,2400.136476 4891.419873,2400.314962 4891.065685,2389.562541"/>
    <poly id="1019302216" type="building" color="255,230,230" fill="1" layer="-1.00" shape="4792.737588,2313.979409 4798.735546,2314.048975 4798.607335,2324.916490 4792.609383,2324.846925 4792.737588,2313.979409"/>
    <poly id="1019302217" type="building" color="255,230,230" fill="1" layer="-1.00" shape="4798.773350,2335.404438 4798.794384,2346.326091 4792.704149,2346.334949 4792.673811,2335.413377 4798.773350,2335.404438"/>
    <poly id="1019302218" type="building" color="255,230,230" fill="1" layer="-1.00" shape="4799.126785,2356.701704 4799.389650,2367.632333 4793.244806,2367.774726 4792.991232,2356.844016 4799.126785,2356.701704"/>
    <poly id="1019302219" type="building" color="255,230,230" fill="1" layer="-1.00" shape="4600.746387,2120.551462 4588.518166,2120.458960 4588.549823,2115.579891 4600.778050,2115.672394 4600.746387,2120.551462"/>
    <poly id="1019302220" type="residential" color="235,235,227" fill="1" layer="-3.00" shape="4479.845797,2227.347646 4478.737945,2125.401666 4531.882699,2124.835984 4531.683648,2113.793917 4563.912313,2113.833087 4564.104916,2112.467556 4756.610137,2111.415096 4757.576703,2221.999932 4756.552622,2223.982576 4754.360043,2225.254703 4751.236736,2226.424084 4748.206690,2226.561453 4479.845797,2227.347646"/>
    <poly id="1019302221" type="building" color="255,230,230" fill="1" layer="-1.00" shape="4701.113658,1989.808613 4695.116175,1989.816714 4695.085741,1978.895146 4701.092529,1978.886963 4701.113658,1989.808613"/>
    <poly id="1019302222" type="building" color="255,230,230" fill="1" layer="-1.00" shape="4701.053137,1962.687512 4701.124548,1975.105622 4695.127250,1975.135898 4695.055831,1962.717788 4701.053137,1962.687512"/>
    <poly id="1019308447" type="building" color="255,230,230" fill="1" layer="-1.00" shape="4700.744410,1947.588143 4700.890204,1960.005603 4694.893284,1960.080228 4694.747483,1947.662768 4700.744410,1947.588143"/>
    <poly id="1019308448" type="building" color="255,230,230" fill="1" layer="-1.00" shape="4700.893628,1944.448890 4694.897475,1944.612214 4694.568626,1932.529000 4700.555489,1932.365757 4700.893628,1944.448890"/>
    <poly id="1019308453" type="building" color="255,230,230" fill="1" layer="-1.00" shape="4815.568627,1902.431590 4797.343961,1902.502070 4797.318973,1897.512620 4815.543648,1897.442140 4815.568627,1902.431590"/>
    <poly id="1019308455" type="building" color="255,230,230" fill="1" layer="-1.00" shape="4885.021158,1817.322486 4864.285105,1817.326046 4864.278748,1812.336434 4885.014812,1812.332875 4885.021158,1817.322486"/>
    <poly id="1019308457" type="residential" color="235,235,227" fill="1" layer="-3.00" shape="4772.121850,1904.141716 4900.852359,1904.204137 4900.693222,1850.793916 4900.475639,1810.933924 4773.448519,1810.146947 4772.121850,1904.141716"/>
    <poly id="1019308458" type="building" color="255,230,230" fill="1" layer="-1.00" shape="4699.791596,1892.865341 4710.559357,1892.859881 4710.559502,1898.193282 4699.791650,1898.187655 4699.791596,1892.865341"/>
    <poly id="1019308459" type="building" color="255,230,230" fill="1" layer="-1.00" shape="4831.287220,1723.974704 4841.291852,1723.876265 4841.482742,1744.675964 4831.487333,1744.763234 4831.287220,1723.974704"/>
    <poly id="1019308460" type="building" color="255,230,230" fill="1" layer="-1.00" shape="4856.485591,1751.519438 4847.523337,1751.719643 4847.300239,1742.141431 4844.566901,1742.198558 4844.113439,1722.210586 4855.808967,1721.942167 4856.485591,1751.519438"/>
    <poly id="1019308461" type="building" color="255,230,230" fill="1" layer="-1.00" shape="4291.005811,2740.347922 4260.416764,2740.439450 4260.384381,2728.298174 4290.973564,2728.217734 4291.005811,2740.347922"/>
    <poly id="1019308462" type="building" color="255,230,230" fill="1" layer="-1.00" shape="4254.433706,2747.322386 4296.780836,2746.817011 4296.854006,2753.025750 4254.506902,2753.531125 4254.433706,2747.322386"/>
    <poly id="1019308464" type="building" color="255,230,230" fill="1" layer="-1.00" shape="4153.483669,2903.201387 4153.832289,2915.339885 4145.605861,2915.567558 4145.257231,2903.429059 4153.483669,2903.201387"/>
    <poly id="1019308465" type="building" color="255,230,230" fill="1" layer="-1.00" shape="4147.392864,2890.437071 4142.418401,2890.414347 4142.506301,2875.056430 4147.480772,2875.079155 4147.392864,2890.437071"/>
    <poly id="1019308466" type="building" color="255,230,230" fill="1" layer="-1.00" shape="4169.835476,2851.131433 4185.780814,2851.101957 4185.789492,2856.313329 4169.844162,2856.342805 4169.835476,2851.131433"/>
    <poly id="1019308467" type="building" color="255,230,230" fill="1" layer="-1.00" shape="4185.948456,2862.754167 4169.306058,2862.811956 4169.294395,2859.374720 4185.936798,2859.316931 4185.948456,2862.754167"/>
    <poly id="1019308468" type="building" color="255,230,230" fill="1" layer="-1.00" shape="4142.161828,2822.213154 4146.996675,2822.214932 4147.020329,2837.571865 4142.185489,2837.570087 4142.161828,2822.213154"/>
    <poly id="1019308469" type="building" color="255,230,230" fill="1" layer="-1.00" shape="4152.655482,2797.527151 4152.948808,2809.721575 4144.861355,2809.903669 4144.568019,2797.709245 4152.655482,2797.527151"/>
    <poly id="1019539891" type="amenity" color="237,199,199" fill="1" layer="-1.00" shape="3934.086176,2532.417144 3939.586761,2531.980507 3939.377525,2529.343364 3933.867640,2529.780083 3934.086176,2532.417144"/>
    <poly id="1019539891#1" type="building" color="255,230,230" fill="1" layer="-1.00" shape="3934.086176,2532.417144 3939.586761,2531.980507 3939.377525,2529.343364 3933.867640,2529.780083 3934.086176,2532.417144"/>
    <poly id="1019539892" type="building" color="255,230,230" fill="1" layer="-1.00" shape="4114.727447,2159.636392 4086.807227,2159.959939 4086.750458,2154.571584 4114.661396,2154.248118 4114.727447,2159.636392"/>
    <poly id="1019539893" type="building" color="255,230,230" fill="1" layer="-1.00" shape="4085.937153,2160.411132 4023.241985,2160.852789 4023.201332,2155.187087 4085.896537,2154.745430 4085.937153,2160.411132"/>
    <poly id="1019539894" type="building" color="255,230,230" fill="1" layer="-1.00" shape="4121.961132,2159.583776 4127.167436,2159.493577 4127.902041,2200.679693 4122.695758,2200.769892 4121.961132,2159.583776"/>
    <poly id="1019539895" type="building" color="255,230,230" fill="1" layer="-1.00" shape="3984.005751,2155.920814 4021.993612,2155.308616 4022.089367,2160.896216 3984.092133,2161.497408 3984.005751,2155.920814"/>
    <poly id="1019539896" type="residential" color="235,235,227" fill="1" layer="-3.00" shape="3975.547621,2220.606269 3972.814226,2219.588093 3971.324956,2217.305976 3970.364769,2214.919399 3968.991972,2154.168262 4129.191928,2152.867197 4128.774108,2212.070662 4111.586659,2210.547708 4095.871941,2209.433161 4073.876713,2208.906210 4056.804419,2208.845978 4039.324775,2210.042331 4019.454560,2212.191201 3995.199477,2216.895800 3978.992439,2220.054737 3975.547621,2220.606269"/>
    <poly id="1019539897" type="residential" color="235,235,227" fill="1" layer="-3.00" shape="4128.774108,2212.070662 4210.932427,2219.264516 4230.631071,2220.865353 4237.336500,2221.017056 4240.353772,2219.427089 4242.118731,2217.116315 4242.411937,2214.508016 4241.752320,2152.187185 4129.191928,2152.867197 4128.774108,2212.070662"/>
    <poly id="1019539898" type="residential" color="235,235,227" fill="1" layer="-3.00" shape="3701.512006,1996.329466 3766.436042,1995.444694 3765.307047,1934.015032 3700.462892,1936.617761 3701.512006,1996.329466"/>
    <poly id="1019539899" type="residential" color="235,235,227" fill="1" layer="-3.00" shape="3702.299526,2061.155146 3767.633111,2060.366539 3766.436042,1995.444694 3701.512006,1996.329466 3702.299526,2061.155146"/>
    <poly id="1019539901" type="amenity" color="237,199,199" fill="1" layer="-1.00" shape="3189.858843,2612.618429 3192.574036,2612.638607 3192.617452,2607.071935 3189.902258,2607.051758 3189.858843,2612.618429"/>
    <poly id="1019539901#1" type="building" color="255,230,230" fill="1" layer="-1.00" shape="3189.858843,2612.618429 3192.574036,2612.638607 3192.617452,2607.071935 3189.902258,2607.051758 3189.858843,2612.618429"/>
    <poly id="1019539904" type="building" color="255,230,230" fill="1" layer="-1.00" shape="3422.328862,2681.926145 3399.920291,2681.859043 3399.952579,2672.932747 3422.361171,2672.999849 3422.328862,2681.926145"/>
    <poly id="1019539905" type="building" color="255,230,230" fill="1" layer="-1.00" shape="3519.671136,2694.778343 3514.185020,2694.738301 3514.463444,2661.138563 3519.949578,2661.178605 3519.671136,2694.778343"/>
    <poly id="1019539906" type="amenity" color="237,199,199" fill="1" layer="-1.00" shape="3132.191836,2541.557611 3126.622740,2541.607231 3126.597450,2538.768872 3132.166548,2538.719252 3132.191836,2541.557611"/>
    <poly id="1019539906#1" type="building" color="255,230,230" fill="1" layer="-1.00" shape="3132.191836,2541.557611 3126.622740,2541.607231 3126.597450,2538.768872 3132.166548,2538.719252 3132.191836,2541.557611"/>
    <poly id="1019539907" type="amenity" color="237,199,199" fill="1" layer="-1.00" shape="3202.168814,2509.155570 3199.127988,2509.116112 3199.149976,2507.408331 3202.190902,2507.458876 3202.168814,2509.155570"/>
    <poly id="1019539907#1" type="building" color="255,230,230" fill="1" layer="-1.00" shape="3202.168814,2509.155570 3199.127988,2509.116112 3199.149976,2507.408331 3202.190902,2507.458876 3202.168814,2509.155570"/>
    <poly id="1019539908" type="building" color="255,230,230" fill="1" layer="-1.00" shape="3199.547374,2475.803380 3199.536908,2469.405574 3214.432413,2469.394949 3214.442869,2475.792756 3199.547374,2475.803380"/>
    <poly id="1019539908#1" type="shop" color="237,199,255" fill="1" layer="-1.00" shape="3199.547374,2475.803380 3199.536908,2469.405574 3214.432413,2469.394949 3214.442869,2475.792756 3199.547374,2475.803380"/>
    <poly id="1019539910" type="building" color="255,230,230" fill="1" layer="-1.00" shape="3214.994626,1928.695584 3214.519618,1911.890093 3230.983384,1911.422035 3230.860342,1906.998936 3242.090269,1906.677260 3242.794706,1931.508570 3233.805110,1931.754872 3233.708162,1928.174244 3214.994626,1928.695584"/>
    <poly id="1019539911" type="building" color="255,230,230" fill="1" layer="-1.00" shape="3790.660842,1877.862071 3795.589539,1877.907211 3795.289432,1909.178545 3790.360752,1909.133406 3790.660842,1877.862071"/>
    <poly id="1019539912" type="building" color="255,230,230" fill="1" layer="-1.00" shape="3783.027265,1888.452239 3778.052281,1888.429692 3778.193849,1862.371205 3783.168847,1862.393753 3783.027265,1888.452239"/>
    <poly id="1019539913" type="building" color="255,230,230" fill="1" layer="-1.00" shape="3782.806914,1892.978167 3783.093883,1908.609972 3778.166379,1908.697887 3777.879401,1893.066082 3782.806914,1892.978167"/>
    <poly id="1019539914" type="building" color="255,230,230" fill="1" layer="-1.00" shape="3746.598947,1789.002852 3746.648391,1784.079260 3777.616151,1784.404199 3777.566789,1789.338877 3746.598947,1789.002852"/>
    <poly id="1019539915" type="building" color="255,230,230" fill="1" layer="-1.00" shape="3744.302644,1790.109802 3710.187729,1802.974492 3708.369232,1798.178309 3742.474766,1785.302608 3744.302644,1790.109802"/>
    <poly id="1019539920" type="amenity" color="237,199,199" fill="1" layer="-1.00" shape="2374.423581,931.985225 2377.502409,932.057362 2377.534163,930.416021 2374.464634,930.343800 2374.423581,931.985225"/>
    <poly id="1019539920#1" type="building" color="255,230,230" fill="1" layer="-1.00" shape="2374.423581,931.985225 2377.502409,932.057362 2377.534163,930.416021 2374.464634,930.343800 2374.423581,931.985225"/>
    <poly id="1019539929" type="amenity" color="237,199,199" fill="1" layer="-1.00" shape="3177.304841,972.574154 3177.316887,978.107054 3174.489847,978.110039 3174.477800,972.577139 3177.304841,972.574154"/>
    <poly id="1019539929#1" type="building" color="255,230,230" fill="1" layer="-1.00" shape="3177.304841,972.574154 3177.316887,978.107054 3174.489847,978.110039 3174.477800,972.577139 3177.304841,972.574154"/>
    <poly id="1019578754" type="amenity" color="237,199,199" fill="1" layer="-1.00" shape="3146.059090,1764.250266 3148.727340,1764.193239 3148.622380,1758.672248 3145.954030,1758.718188 3146.059090,1764.250266"/>
    <poly id="1019578754#1" type="building" color="255,230,230" fill="1" layer="-1.00" shape="3146.059090,1764.250266 3148.727340,1764.193239 3148.622380,1758.672248 3145.954030,1758.718188 3146.059090,1764.250266"/>
    <poly id="1019578755" type="amenity" color="237,199,199" fill="1" layer="-1.00" shape="3183.266334,1757.243878 3185.934586,1757.186861 3185.829647,1751.665870 3183.161394,1751.722887 3183.266334,1757.243878"/>
    <poly id="1019578755#1" type="building" color="255,230,230" fill="1" layer="-1.00" shape="3183.266334,1757.243878 3185.934586,1757.186861 3185.829647,1751.665870 3183.161394,1751.722887 3183.266334,1757.243878"/>
    <poly id="1019578757" type="building" color="255,230,230" fill="1" layer="-1.00" shape="3259.453579,1656.062518 3259.394189,1668.204624 3254.651536,1668.180277 3254.710920,1656.038170 3259.453579,1656.062518"/>
    <poly id="1019578761" type="building" color="255,230,230" fill="1" layer="-1.00" shape="2449.551516,1657.777581 2380.666073,1657.897275 2380.657277,1651.743387 2449.542863,1651.634781 2449.551516,1657.777581"/>
    <poly id="1019787180" type="building" color="255,230,230" fill="1" layer="-1.00" shape="4799.025796,3067.664652 4811.352847,3067.501495 4811.412032,3072.146921 4837.442044,3071.808635 4837.613169,3085.013151 4811.666863,3085.350706 4811.753073,3092.025032 4799.333086,3092.189002 4799.025796,3067.664652"/>
    <poly id="1019787181" type="building" color="255,230,230" fill="1" layer="-1.00" shape="4846.998417,2986.479324 4987.392605,2986.584770 4987.376748,2997.562190 4846.982720,2997.456748 4846.998417,2986.479324"/>
    <poly id="1019787182" type="building" color="255,230,230" fill="1" layer="-1.00" shape="4987.361188,2976.583520 4846.967243,2976.522421 4846.975194,2965.722476 4987.369103,2965.761404 4987.361188,2976.583520"/>
    <poly id="1019787185" type="building" color="255,230,230" fill="1" layer="-1.00" shape="4816.457860,2951.585519 4987.440502,2951.556844 4987.434763,2959.429490 4816.452260,2959.458168 4816.457860,2951.585519"/>
    <poly id="1019787186" type="building" color="255,230,230" fill="1" layer="-1.00" shape="4837.507484,2983.501885 4799.415422,2983.513123 4799.418159,2965.738763 4807.125856,2965.737941 4807.124894,2967.755996 4837.499929,2967.734575 4837.507484,2983.501885"/>
    <poly id="1019787187" type="building" color="255,230,230" fill="1" layer="-1.00" shape="4809.140716,2950.529545 4809.127669,2959.677398 4802.898173,2959.665301 4802.911214,2950.517448 4809.140716,2950.529545"/>
    <poly id="1019787188" type="building" color="255,230,230" fill="1" layer="-1.00" shape="4818.906819,3000.961916 4819.514750,3025.849546 4796.368759,3026.406612 4795.760866,3001.530070 4818.906819,3000.961916"/>
    <poly id="1019787235" type="building" color="255,230,230" fill="1" layer="-1.00" shape="4550.763089,2336.543208 4545.278346,2336.679974 4544.636079,2310.074001 4550.120837,2309.937235 4550.763089,2336.543208"/>
    <poly id="1020658299" type="leisure" color="207,245,201" fill="1" layer="-2.00" shape="4625.858559,1991.697854 4623.998587,1990.605319 4620.812771,1987.827903 4616.685600,1982.674775 4616.539727,1981.944234 4616.735349,1980.922410 4617.567883,1980.427243 4628.112693,1980.456905 4628.449453,1980.686809 4628.629897,1981.117668 4628.670733,1990.032190 4628.343096,1990.844494 4627.530614,1991.505807 4626.834830,1991.689308 4625.858559,1991.697854"/>
    <poly id="1020886878" type="leisure" color="207,245,201" fill="1" layer="-2.00" shape="4243.961061,1145.872334 4241.525322,1148.067025 4240.380088,1148.964145 4238.025252,1149.783194 4235.941480,1149.701719 4234.178773,1149.118455 4232.009012,1147.718247 4230.805432,1146.209751 4229.790786,1143.978864 4229.663546,1141.141414 4229.876907,1138.966259 4230.789323,1136.973457 4232.001929,1135.277396 4233.879126,1134.074459 4236.135189,1133.655452 4237.662508,1133.908141 4239.060483,1135.315135 4239.705852,1136.795275 4239.552122,1138.348968 4239.095572,1139.306564 4237.251281,1140.021331 4235.594329,1140.889686 4234.611558,1142.284345 4234.859424,1144.034095 4236.097567,1145.242908 4238.256022,1145.356990 4239.373653,1144.493377 4240.650472,1142.696959 4241.305452,1141.039066 4242.052542,1139.280569 4243.425858,1137.882477 4246.077475,1136.972116 4248.856894,1136.847891 4251.187404,1137.492696 4252.854745,1138.864060 4253.398899,1140.467060 4253.410203,1141.753187 4252.760816,1142.989681 4251.538853,1143.621358 4249.975511,1143.502042 4248.219237,1143.650537 4246.106455,1144.500720 4243.961061,1145.872334"/>
    <poly id="1020945030" type="leisure" color="207,245,201" fill="1" layer="-2.00" shape="3667.633638,2195.473877 3659.555654,2195.733896 3658.707212,2195.475292 3658.022005,2194.749538 3657.724942,2193.754231 3657.519482,2192.602878 3657.862780,2191.468842 3658.692205,2190.629884 3666.108337,2188.080468 3667.586369,2188.034118 3668.901657,2188.510354 3669.979426,2189.465485 3670.472621,2190.558850 3670.580517,2192.243300 3670.284394,2193.454535 3669.549907,2194.514416 3667.633638,2195.473877"/>
    <poly id="1021735025" type="building" color="255,230,230" fill="1" layer="-1.00" shape="4942.921322,1252.841287 4910.560711,1252.923893 4910.538463,1243.975960 4907.767403,1243.989041 4907.682096,1207.554166 4904.538986,1207.559405 4904.491968,1189.375270 4942.767080,1189.285437 4942.921322,1252.841287"/>